** CCX 2.21 scalar mean-axial MPC implementation benchmark only.
** Four C3D8 elements form a 10 x 10 x 100 mm elastic bar surrogate.
** Eight isolated nodes form a finite rigid-only nut surrogate.
** One area-weighted mean-U3 equality joins the bar face to nut REF NODE.
** No thread, contact, fit, transverse, bending, or capacity law is modeled.
*NODE
1,0,0,0
2,5,0,0
3,10,0,0
4,0,5,0
5,5,5,0
6,10,5,0
7,0,10,0
8,5,10,0
9,10,10,0
10,0,0,100
11,5,0,100
12,10,0,100
13,0,5,100
14,5,5,100
15,10,5,100
16,0,10,100
17,5,10,100
18,10,10,100
21,0,0,100
22,10,0,100
** ... 8 like lines cut
*ELEMENT,TYPE=C3D8,ELSET=BOLT
1,1,2,5,4,10,11,14,13
2,2,3,6,5,11,12,15,14
3,4,5,8,7,13,14,17,16
4,5,6,9,8,14,15,18,17
*NSET,NSET=BOLT_BOTTOM
1,2,3,4,5,6,7,8,9
*NSET,NSET=BOLT_TOP
10,11,12,13,14,15,16,17,18
*NSET,NSET=NUT_NODES
21,22,23,24,25,26,27,28
*NSET,NSET=ALL_NODES
1,2,3,4,5,6,7,8,9,10,11,12,13,14,15,16
17,18,21,22,23,24,25,26,27,28,900,901
*MATERIAL,NAME=ELASTIC_FIXTURE_ONLY
*ELASTIC
200000,0.3
*SOLID SECTION,ELSET=BOLT,MATERIAL=ELASTIC_FIXTURE_ONLY
,
*RIGID BODY,NSET=NUT_NODES,REF NODE=900,ROT NODE=901
*EQUATION
10
14,3,0.25,10,3,0.0625,11,3,0.125,12,3,0.0625
13,3,0.125,15,3,0.125,16,3,0.0625,17,3,0.125
18,3,0.0625,900,3,-1
*STEP,INC=10
*STATIC
1,1,1e-8,1
*BOUNDARY
BOLT_BOTTOM,3,3,0
5,1,2,0
6,2,2,0
900,1,2,0
901,1,3,0
*CLOAD
900,3,1000
*NODE PRINT,NSET=ALL_NODES,FREQUENCY=1
U,RF
*EL PRINT,ELSET=BOLT,FREQUENCY=1
S,E
*END STEP
