*HEADING
** Solver smoke test only. This is not a Mini MoonBoard structural model.
*NODE
1, 0, 0, 0
2, 0, 1, 0
3, 0, 1, 1
4, 0, 0, 1
5, 1, 0, 0
6, 1, 1, 0
7, 1, 1, 1
8, 1, 0, 1
*ELEMENT, TYPE=C3D8, ELSET=BLOCK
1, 1, 5, 6, 2, 4, 8, 7, 3
*MATERIAL, NAME=SMOKE_STEEL
*ELASTIC
210000., 0.3
*SOLID SECTION, ELSET=BLOCK, MATERIAL=SMOKE_STEEL
*BOUNDARY
1, 1, 3
2, 1, 3
3, 1, 3
4, 1, 3
*STEP
*STATIC
*CLOAD
7, 3, -1.
*NODE FILE
U
*EL FILE
S
*END STEP
