*NODE
1,0,0,0
2,100,0,0
3,100,100,0
4,0,100,0
5,0,0,100
6,100,0,100
7,100,100,100
8,0,100,100
9,-10,-10,-100
10,110,-10,-100
11,110,110,-100
12,-10,110,-100
13,-10,-10,0
14,110,-10,0
15,110,110,0
16,-10,110,0
17,50.0,0.0,0.0
18,100.0,50.0,0.0
19,50.0,50.0,0.0
20,50.0,50.0,50.0
** ... 15 like lines cut
*ELEMENT,TYPE=C3D10,ELSET=WOOD
1,1,2,3,7,17,18,19,20,21,22
2,1,3,4,7,19,23,24,20,22,25
3,1,4,8,7,24,26,27,20,25,28
4,1,8,5,7,27,29,30,20,28,31
5,1,5,6,7,30,32,33,20,31,34
6,1,6,2,7,33,35,17,20,34,21
*ELEMENT,TYPE=C3D8,ELSET=GROUND
99,9,10,11,12,13,14,15,16
*NSET,NSET=GROUND
9,10,11,12,13,14,15,16
*NSET,NSET=WOOD
1,2,3,4,5,6,7,8,17,18,19,20,21,22,23,24
25,26,27,28,29,30,31,32,33,34,35
*MATERIAL,NAME=WOOD
*ELASTIC
7000,.3
*DENSITY
6e-10
*SOLID SECTION,ELSET=WOOD,MATERIAL=WOOD
*SOLID SECTION,ELSET=GROUND,MATERIAL=WOOD
*SURFACE,NAME=SLAVE
1,S1
2,S1
*SURFACE,NAME=MASTER
99,S2
*SURFACE INTERACTION,NAME=FLOOR
*SURFACE BEHAVIOR,PRESSURE-OVERCLOSURE=LINEAR
10000
*FRICTION
.3,100
*CONTACT PAIR,INTERACTION=FLOOR,TYPE=SURFACE TO SURFACE
SLAVE,MASTER
*BOUNDARY
GROUND,1,3,0
*STEP,NLGEOM,INC=100
*STATIC
0.05,1,1e-6,0.1
*DLOAD
WOOD,GRAV,9806.65,0,0,-1
*NODE PRINT,NSET=WOOD
U
*NODE PRINT,NSET=GROUND
RF
*CONTACT FILE
CDIS,CSTR
*END STEP
