** CCX 2.21 contact force/wrench output benchmark; not a joint model.
** One 20 x 20 x 10 mm linear-elastic block per side; interface at z=0.
** The 100 N total compressive top load acts at (10,10,10) mm.
** Fixture elastic constants and contact penalty are numerical inputs only.
*NODE
1,0,0,-10
2,20,0,-10
3,20,20,-10
4,0,20,-10
5,0,0,0
6,20,0,0
7,20,20,0
8,0,20,0
11,0,0,0
12,20,0,0
13,20,20,0
14,0,20,0
15,0,0,10
16,20,0,10
17,20,20,10
18,0,20,10
*ELEMENT,TYPE=C3D8,ELSET=LOWER
1,1,2,3,4,5,6,7,8
*ELEMENT,TYPE=C3D8,ELSET=UPPER
2,11,12,13,14,15,16,17,18
*NSET,NSET=BOTTOM
1,2,3,4
*NSET,NSET=UPPER
11,12,13,14,15,16,17,18
*NSET,NSET=TOP
15,16,17,18
*MATERIAL,NAME=FIXTURE_ONLY
*ELASTIC
1000,0
*SOLID SECTION,ELSET=LOWER,MATERIAL=FIXTURE_ONLY
,
*SOLID SECTION,ELSET=UPPER,MATERIAL=FIXTURE_ONLY
,
*SURFACE,NAME=LOWER_INTERFACE,TYPE=ELEMENT
1,S2
*SURFACE,NAME=UPPER_INTERFACE,TYPE=ELEMENT
2,S1
*SURFACE INTERACTION,NAME=FRICTIONLESS
*SURFACE BEHAVIOR,PRESSURE-OVERCLOSURE=LINEAR
10000
*CONTACT PAIR,INTERACTION=FRICTIONLESS,TYPE=SURFACE TO SURFACE
UPPER_INTERFACE,LOWER_INTERFACE
*BOUNDARY
BOTTOM,1,3,0
UPPER,1,2,0
*STEP,NLGEOM,INC=100
*STATIC
1,1,1e-6,1
*CLOAD
15,3,-25
16,3,-25
17,3,-25
18,3,-25
*NODE PRINT,NSET=TOP
U,RF
*NODE PRINT,NSET=BOTTOM
RF
*CONTACT PRINT,FREQUENCY=1
CDIS,CSTR
*CONTACT PRINT,SLAVE=UPPER_INTERFACE,MASTER=LOWER_INTERFACE,FREQUENCY=1
CF,CFN,CFS
*END STEP
