** Current patch elastic material and section assignments; scenario inputs only.
** Select one R/T and one metal branch; do not combine fragments.
** No contact, tie, load, restraint, rigid-body definition, or solve cards are included.
** Nut STEP bodies are solid cylindrical viewer envelopes without internal bores, not physical nut compliance or response-ready geometry.
*MATERIAL,NAME=WOOD_ELASTIC_DIAGNOSTIC
*ELASTIC,TYPE=ENGINEERING CONSTANTS
11032,750.17600000000004,551.60000000000002,0.29199999999999998,0.44900000000000001,0.39000000000000001,706.048,860.49599999999998
77.224000000000004
*MATERIAL,NAME=STEEL_ELASTIC_DIAGNOSTIC
*ELASTIC,TYPE=ISO
200000,0.3
*ORIENTATION,NAME=ORI_W00_BOTTOM_CENTER_RIGHT_CLEAT_SOURCE_TRANSVERSE_A
0,-0.76604444299999996,0.64278760999999995,1,0,0
*ORIENTATION,NAME=ORI_W01_BASE_RAIL_BOTTOM_RIGHT_SOURCE_TRANSVERSE_A
1,0,0,0,0.64278760968653936,0.76604444311897801
*ORIENTATION,NAME=ORI_W02_BASE_PRINCIPAL_CENTER_RIGHT_SOURCE_TRANSVERSE_A
0,0.64278760999999995,0.76604444299999996,1,0,0
*SOLID SECTION,ELSET=W00_BOTTOM_CENTER_RIGHT_CLEAT,MATERIAL=WOOD_ELASTIC_DIAGNOSTIC,ORIENTATION=ORI_W00_BOTTOM_CENTER_RIGHT_CLEAT_SOURCE_TRANSVERSE_A
*SOLID SECTION,ELSET=W01_BASE_RAIL_BOTTOM_RIGHT,MATERIAL=WOOD_ELASTIC_DIAGNOSTIC,ORIENTATION=ORI_W01_BASE_RAIL_BOTTOM_RIGHT_SOURCE_TRANSVERSE_A
*SOLID SECTION,ELSET=W02_BASE_PRINCIPAL_CENTER_RIGHT,MATERIAL=WOOD_ELASTIC_DIAGNOSTIC,ORIENTATION=ORI_W02_BASE_PRINCIPAL_CENTER_RIGHT_SOURCE_TRANSVERSE_A
*SOLID SECTION,ELSET=M00_A00_BOLT_HEAD_PLUS_SHAFT_UNION,MATERIAL=STEEL_ELASTIC_DIAGNOSTIC
*SOLID SECTION,ELSET=M01_A00_HEAD_WASHER,MATERIAL=STEEL_ELASTIC_DIAGNOSTIC
*SOLID SECTION,ELSET=M02_A00_NUT_WASHER,MATERIAL=STEEL_ELASTIC_DIAGNOSTIC
*SOLID SECTION,ELSET=M04_A01_BOLT_HEAD_PLUS_SHAFT_UNION,MATERIAL=STEEL_ELASTIC_DIAGNOSTIC
*SOLID SECTION,ELSET=M05_A01_HEAD_WASHER,MATERIAL=STEEL_ELASTIC_DIAGNOSTIC
*SOLID SECTION,ELSET=M06_A01_NUT_WASHER,MATERIAL=STEEL_ELASTIC_DIAGNOSTIC
*SOLID SECTION,ELSET=M08_A02_BOLT_HEAD_PLUS_SHAFT_UNION,MATERIAL=STEEL_ELASTIC_DIAGNOSTIC
*SOLID SECTION,ELSET=M09_A02_HEAD_WASHER,MATERIAL=STEEL_ELASTIC_DIAGNOSTIC
*SOLID SECTION,ELSET=M10_A02_NUT_WASHER,MATERIAL=STEEL_ELASTIC_DIAGNOSTIC
*SOLID SECTION,ELSET=M12_A03_BOLT_HEAD_PLUS_SHAFT_UNION,MATERIAL=STEEL_ELASTIC_DIAGNOSTIC
*SOLID SECTION,ELSET=M13_A03_HEAD_WASHER,MATERIAL=STEEL_ELASTIC_DIAGNOSTIC
*SOLID SECTION,ELSET=M14_A03_NUT_WASHER,MATERIAL=STEEL_ELASTIC_DIAGNOSTIC
** Nut ELSETs intentionally have no elastic section in this alternative:
** M03_A00_NUT, M07_A01_NUT, M11_A02_NUT, M15_A03_NUT
** A downstream rigid-body branch may consume these ELSETs; no rigid card is emitted here.
